Circuit: * C:\Users\win\Desktop\Sem-1\EEE Experiments\Exp-2\Draft1.asc

Direct Newton iteration for .op point succeeded.

Date: Sat Aug 31 12:43:36 2019
Total elapsed time: 0.156 seconds.

tnom = 27
temp = 27
method = trap
totiter = 3
traniter = 0
tranpoints = 0
accept = 0
rejected = 0
matrix size = 5
fillins = 0
solver = Normal
Matrix Compiler1: 114 bytes object code size
Matrix Compiler2: 301 bytes object code size
