Circuit: * C:\Users\win\Desktop\College Stuff\PPT and Exp\EEE Experiments\Draft1.asc

.OP point found by inspection.

Date: Thu Oct 31 09:48:23 2019
Total elapsed time: 0.126 seconds.

tnom = 27
temp = 27
method = modified trap
totiter = 7906
traniter = 7906
tranpoints = 3954
accept = 2662
rejected = 1292
matrix size = 4
fillins = 0
solver = Normal
Matrix Compiler1: 100 bytes object code size  0.1/0.1/[0.0]
Matrix Compiler2: 248 bytes object code size  0.1/0.1/[0.1]

